/*--------------------------------*- C++ -*----------------------------------*\
| =========                 |                                                 |
| \\      /  F ield         | OpenFOAM: The Open Source CFD Toolbox           |
|  \\    /   O peration     | Version:  5                                   |
|   \\  /    A nd           | Web:      www.OpenFOAM.org                      |
|    \\/     M anipulation  |                                                 |
\*---------------------------------------------------------------------------*/
FoamFile
{
    version     2.0;
    format      ascii;
    class       dictionary;
    object      createPatchDict;
}
// * * * * * * * * * * * * * * * * * * * * * * * * * * * * * * * * * * * * * //

pointSync false;

// Patches to create.
patches
(
    {
        name inlet;  // Name of new patch
        patchInfo { type patch; }
        constructFrom patches;  //or 'set'
        patches (in); //name of patch to create from
    }

    {
        name outlet;
        patchInfo { type patch; }
        constructFrom patches;
        patches (out);
    }

    {
        name side1;
        patchInfo { type symmetry; }
        constructFrom patches;
        patches (sym);
    }

    {
        name side2;
        patchInfo { type symmetry; }
        constructFrom patches;
        patches (side);
    }

    {
        name top1;
        patchInfo { type symmetry; }
        constructFrom patches;
        patches (top);
    }

    {
        name ground;
        patchInfo { type symmetry; }
        constructFrom patches;
        patches (ground);
    }

);

// ************************************************************************* //
